Circuit: * C:\Users\Anton\git\piezo_stage_controller\sim\output_amp_sim.asc

C5: both pins shorted together -- ignoring.
Direct Newton iteration failed to find .op point.  (Use ".option noopiter" to skip.)
Starting Gmin stepping
Gmin = 10
Gmin = 1.07374
Gmin = 0.115292
Gmin = 0.0123794
Gmin = 0.00132923
Gmin = 0.000142725
Gmin = 1.5325e-005
Gmin = 1.6455e-006
Gmin = 1.76685e-007
Gmin = 1.89714e-008
Gmin = 2.03704e-009
Gmin = 2.18725e-010
Gmin = 2.34854e-011
Gmin = 2.52173e-012
Gmin = 2.70769e-013
Gmin = 0
Gmin stepping succeeded in finding the operating point.


Date: Thu Feb 10 22:15:08 2022
Total elapsed time: 0.232 seconds.

tnom = 27
temp = 27
method = modified trap
totiter = 8902
traniter = 8349
tranpoints = 2327
accept = 1952
rejected = 375
matrix size = 55
fillins = 68
solver = Normal
Matrix Compiler1: 5.92 KB object code size  1.4/1.1/[0.3]
Matrix Compiler2: 5.44 KB object code size  0.5/0.9/[0.3]

