Circuit: * C:\Users\Anton\git\piezo_stage_controller\sim\photodiode_to_diff_with_offset.asc

Direct Newton iteration failed to find .op point.  (Use ".option noopiter" to skip.)
Starting Gmin stepping
Gmin = 10
Gmin = 1.07374
Gmin = 0.115292
Gmin = 0.0123794
Gmin = 0.00132923
vernier = 0.5
vernier = 0.25
vernier = 0.125
vernier = 0.0625
Gmin = 0.00100083
vernier = 0.03125
vernier = 0.015625
vernier = 0.0078125
vernier = 0.00390625
vernier = 0.00195313
Gmin = 0.00100083
vernier = 0.000976563
vernier = 0.000488281
Gmin = 0
Gmin stepping failed

Starting source stepping with srcstepmethod=0
Source Step = 3.0303%
Source Step = 33.3333%
Source Step = 63.6364%
Source Step = 93.9394%
Source stepping succeeded in finding the operating point.


peakpeak: AVG(v(outp)-v(outn))=4.611 FROM 0 TO 0.1


Date: Sat Feb 12 19:00:05 2022
Total elapsed time: 0.510 seconds.

tnom = 27
temp = 27
method = modified trap
totiter = 4020
traniter = 2132
tranpoints = 1067
accept = 1057
rejected = 10
matrix size = 142
fillins = 362
solver = Normal
Thread vector: 10.8/6.6[4] 4.3/6.2[1] 2.2/5.3[1] 0.8/1.6[1]  2592/500
Matrix Compiler1: 24.96 KB object code size  5.3/2.7/[1.7]
Matrix Compiler2: 17.49 KB object code size  2.9/4.1/[1.0]

