Circuit: * C:\Users\Anton\git\piezo_stage_controller\sim\photodiode_to_diff_with_offset.asc

WARNING: Less than two connections to node NC_01.  This node is used by R4.
Direct Newton iteration failed to find .op point.  (Use ".option noopiter" to skip.)
Starting Gmin stepping
Gmin = 10
Gmin = 1.07374
Gmin = 0.115292
Gmin = 0.0123794
Gmin = 0.00132923
vernier = 0.5
vernier = 0.25
vernier = 0.125
vernier = 0.0625
Gmin = 0.00100083
vernier = 0.03125
vernier = 0.015625
vernier = 0.0078125
vernier = 0.00390625
vernier = 0.00195313
Gmin = 0.00100083
vernier = 0.000976563
vernier = 0.000488281
Gmin = 0
Gmin stepping failed

Starting source stepping with srcstepmethod=0
Source Step = 3.0303%
Source Step = 33.3333%
Source Step = 63.6364%
Source Step = 93.9394%
Source stepping succeeded in finding the operating point.


peakpeak: AVG(v(outp)-v(outn))=2.50044 FROM 0 TO 1e-005


Date: Sun Feb 13 22:02:04 2022
Total elapsed time: 0.427 seconds.

tnom = 27
temp = 27
method = modified trap
totiter = 7707
traniter = 5841
tranpoints = 1680
accept = 1513
rejected = 167
matrix size = 143
fillins = 293
solver = Normal
Thread vector: 8.0/4.7[4] 3.5/2.2[4] 2.0/1.6[4] 0.6/1.6[1]  2592/500
Matrix Compiler1: 18.06 KB object code size  3.5/1.5/[0.8]
Matrix Compiler2: 16.35 KB object code size  1.7/2.7/[0.8]

